ckt7_Mon_rfi_02_der050.csv
fault_bus,fault_type,fault_R_ohm,Va_mag_pu,Va_ang_deg,Vb_mag_pu,Vb_ang_deg,Vc_mag_pu,Vc_ang_deg,Ia_mag_A,Ia_ang_deg,Ib_mag_A,Ib_ang_deg,Ic_mag_A,Ic_ang_deg
318412,SLG,0,0.141522,-115.0455,1.064837,-149.7192,1.045868,90.7404,1185.7571,79.3651,2139.9249,31.5533,1549.2452,-93.6579
318412,SLG,10,1.052293,-29.8757,1.052639,-149.8086,1.0522,90.1893,1730.8446,145.8761,1761.5072,25.9935,1721.1252,-94.2545
318412,SLG,20,1.052295,-29.8527,1.052639,-149.8089,1.052204,90.1894,1730.6633,145.8982,1761.6209,25.9884,1721.2029,-94.2487
318412,SLG,30,1.052295,-29.8451,1.052638,-149.809,1.052205,90.1894,1730.6028,145.9056,1761.6588,25.9867,1721.2287,-94.2468
318412,SLG,40,1.052296,-29.8413,1.052638,-149.809,1.052206,90.1894,1730.5726,145.9093,1761.6777,25.9858,1721.2416,-94.2458
318412,LL,0,0.132039,-116.3194,0.140417,130.7314,1.053773,90.7215,980.2548,48.3693,775.769,5.1155,1558.2752,-87.1446
318412,LL,10,1.052284,-29.8759,1.052635,-149.8545,1.052201,90.1898,1730.6865,145.8644,1761.8728,25.9492,1720.8972,-94.2441
318412,LL,20,1.05229,-29.8528,1.052637,-149.8318,1.052204,90.1896,1730.5843,145.8923,1761.8039,25.9662,1721.0888,-94.2435
318412,LL,30,1.052293,-29.8452,1.052637,-149.8243,1.052206,90.1896,1730.5501,145.9017,1761.7808,25.9719,1721.1526,-94.2433
318412,LL,40,1.052294,-29.8413,1.052637,-149.8205,1.052206,90.1896,1730.533,145.9063,1761.7693,25.9747,1721.1846,-94.2432
318412,3LG,0,0.131198,-111.6323,0.13122,128.3897,0.131176,8.3782,397.0275,69.4374,401.0056,-50.5777,395.6116,-170.9047
318412,3LG,10,1.052285,-29.8754,1.052626,-149.8547,1.052196,90.1439,1730.4621,145.8747,1761.7146,25.9377,1721.2608,-94.2885
318412,3LG,20,1.052291,-29.8526,1.052632,-149.8319,1.052202,90.1667,1730.4721,145.8975,1761.7248,25.9605,1721.2707,-94.2657
318412,3LG,30,1.052293,-29.845,1.052634,-149.8243,1.052204,90.1743,1730.4753,145.9051,1761.7281,25.9681,1721.274,-94.2581
318412,3LG,40,1.052294,-29.8412,1.052635,-149.8205,1.052205,90.1781,1730.4769,145.9089,1761.7298,25.9719,1721.2756,-94.2543
243937,SLG,0,0.015082,-53.5139,1.350043,175.9486,1.734498,104.6811,108002.9524,-52.7023,2994.9408,6.081,2339.9814,-64.3729
243937,SLG,10,1.045686,-29.9892,1.055151,-150.0624,1.055007,90.4338,972.9117,142.0422,1771.3313,25.9062,1718.5372,-93.9324
243937,SLG,20,1.048982,-29.9097,1.053899,-149.9362,1.053606,90.3123,1349.8482,144.4968,1766.5494,25.9447,1719.8916,-94.0873
243937,SLG,30,1.050085,-29.8831,1.05348,-149.894,1.05314,90.2715,1476.3631,145.0472,1764.9481,25.9576,1720.3507,-94.1391
243937,SLG,40,1.050637,-29.8698,1.05327,-149.8728,1.052907,90.2511,1539.7609,145.2904,1764.1461,25.964,1720.5817,-94.165
243937,LL,0,0.031808,-70.1074,0.024701,121.3243,1.495357,85.7265,228913.9402,-69.8797,177574.8598,121.0349,2374.6951,-91.181
243937,LL,10,1.048491,-29.7448,1.048549,-150.222,1.057476,90.1806,968.0325,142.3736,1011.0029,22.3219,1727.9488,-94.0092
243937,LL,20,1.050381,-29.7868,1.050586,-150.0163,1.054857,90.1852,1347.9268,144.6569,1385.1294,24.5884,1724.6257,-94.125
243937,LL,30,1.051017,-29.8011,1.051269,-149.9474,1.053977,90.1867,1475.1948,145.1527,1510.4254,25.1183,1723.5131,-94.1641
243937,LL,40,1.051336,-29.8082,1.05161,-149.9129,1.053536,90.1874,1538.9268,145.3691,1573.1665,25.356,1722.9558,-94.1837
243937,3LG,0,0.032458,-95.1188,0.032458,144.8809,0.032457,24.882,233584.1246,-95.1192,233580.6922,144.8804,233581.4644,24.8817
243937,3LG,10,1.05097,-29.998,1.051308,-149.9777,1.050885,90.021,975.3281,142.4564,1006.1814,22.6508,966.5511,-97.8791
243937,3LG,20,1.051634,-29.9139,1.051974,-149.8935,1.051547,90.1052,1352.1523,144.6474,1383.2324,24.748,1343.1129,-95.5751
243937,3LG,30,1.051855,-29.8859,1.052195,-149.8654,1.051768,90.1333,1478.1338,145.1391,1509.2747,25.2237,1469.0334,-95.0598
243937,3LG,40,1.051966,-29.8719,1.052306,-149.8513,1.051878,90.1473,1541.1762,145.3566,1572.346,25.4347,1532.0482,-94.8322
157347,SLG,0,0.738681,-16.4757,0.982489,-164.7105,1.324029,91.7565,38172.343,-82.1624,2332.258,9.6408,2051.5287,-80.7803
157347,SLG,10,1.045787,-29.9963,1.055214,-150.0545,1.054849,90.433,977.5545,141.6528,1774.1111,26.1053,1711.9207,-93.9549
157347,SLG,20,1.049033,-29.9146,1.053948,-149.9322,1.053517,90.3126,1351.297,144.2469,1767.9457,26.0464,1716.5348,-94.0996
157347,SLG,30,1.050119,-29.8867,1.053517,-149.8912,1.053078,90.2719,1477.1266,144.8728,1765.8799,26.0258,1718.102,-94.1476
157347,SLG,40,1.050663,-29.8726,1.053299,-149.8707,1.05286,90.2514,1540.2569,145.1572,1764.8453,26.0154,1718.891,-94.1715
157347,LL,0,0.85574,-25.114,0.61926,-148.59,1.187778,83.2957,62706.1442,-74.422,56117.7579,130.3873,2191.6454,-96.0136
157347,LL,10,1.048478,-29.752,1.048691,-150.2212,1.057376,90.186,969.4681,141.7574,1013.9927,22.1822,1724.1221,-93.8312
157347,LL,20,1.050353,-29.7912,1.050681,-150.0171,1.054816,90.1892,1346.8499,144.3572,1386.8613,24.4498,1722.6415,-94.0345
157347,LL,30,1.050993,-29.8041,1.051338,-149.9482,1.053952,90.1896,1474.0759,144.9545,1511.6289,25.0156,1722.1738,-94.1034
157347,LL,40,1.051316,-29.8106,1.051664,-149.9136,1.053518,90.1897,1537.9366,145.2211,1574.0873,25.2756,1721.9451,-94.1381
157347,3LG,0,0.752801,-31.7842,0.75283,-151.78,0.752767,88.218,67006.8665,-92.719,67002.1758,147.2784,67005.4871,27.2868
157347,3LG,10,1.050989,-29.9987,1.051331,-149.9787,1.05091,90.0203,975.0341,142.1123,1005.9393,22.2987,966.4212,-98.2205
157347,3LG,20,1.051648,-29.9146,1.051989,-149.8942,1.051564,90.1046,1351.3137,144.4643,1382.42,24.5621,1342.361,-95.7575
157347,3LG,30,1.051865,-29.8864,1.052207,-149.8659,1.05178,90.1328,1477.4199,145.0155,1508.5786,25.0985,1468.3781,-95.183
157347,3LG,40,1.051973,-29.8722,1.052315,-149.8518,1.051887,90.1469,1540.5826,145.2634,1571.766,25.3403,1531.4989,-94.9251
298162,SLG,0,0.859807,-20.6454,0.98202,-158.6969,1.225633,90.3607,24769.4971,-92.3943,2686.9543,15.0255,1811.3249,-69.3242
298162,SLG,10,1.045987,-30.0313,1.055615,-150.0344,1.05433,90.4421,978.5902,139.0692,1783.895,26.6393,1692.9689,-93.9546
298162,SLG,20,1.049146,-29.9332,1.054162,-149.9216,1.053242,90.3175,1350.9541,143.2101,1772.7285,26.32,1706.9714,-94.1055
298162,SLG,30,1.050197,-29.8993,1.053662,-149.884,1.052891,90.2752,1476.768,144.2196,1769.0411,26.2098,1711.7075,-94.1528
298162,SLG,40,1.050722,-29.8822,1.053409,-149.8653,1.052718,90.2539,1539.9453,144.6798,1767.2057,26.1539,1714.0882,-94.1759
298162,LL,0,0.935901,-25.7778,0.777083,-146.7693,1.127026,84.9916,39475.5466,-83.183,35698.9045,122.5964,2177.7233,-88.4879
298162,LL,10,1.048186,-29.7764,1.049278,-150.2367,1.057268,90.2137,954.9799,138.9293,1019.4766,20.458,1715.0,-93.2804
298162,LL,20,1.050195,-29.8045,1.051005,-150.0254,1.054759,90.2043,1337.734,143.2725,1390.0257,23.7417,1717.7861,-93.7598
298162,LL,30,1.050886,-29.8132,1.05156,-149.9538,1.053913,90.2,1467.6623,144.2788,1513.871,24.5668,1718.8699,-93.9205
298162,LL,40,1.051235,-29.8175,1.051834,-149.9179,1.053489,90.1976,1533.0075,144.7298,1575.8228,24.9467,1719.4419,-94.0009
298162,3LG,0,0.861896,-29.2787,0.861892,-149.2798,0.861898,90.722,42310.1178,-100.9541,42309.6387,139.0453,42309.7893,19.0466
298162,3LG,10,1.051078,-30.0046,1.051432,-149.9856,1.051016,90.0144,964.8845,140.193,995.832,20.3814,956.8068,-100.1428
298162,3LG,20,1.051698,-29.9177,1.052046,-149.8978,1.051623,90.1015,1345.64,143.7227,1376.7809,23.8161,1336.9399,-96.4984
298162,3LG,30,1.0519,-29.8885,1.052246,-149.8684,1.051821,90.1307,1473.5496,144.5526,1504.7338,24.6321,1464.6745,-95.6453
298162,3LG,40,1.052,-29.8738,1.052345,-149.8536,1.051918,90.1454,1537.6511,144.9265,1568.8545,25.0008,1528.692,-95.2615
165448,SLG,0,0.874144,-21.293,0.98503,-157.9665,1.21286,90.2778,22978.6604,-93.5831,2697.0175,15.2437,1801.3993,-68.975
165448,SLG,10,1.04602,-30.0353,1.055656,-150.0316,1.054264,90.4426,979.2748,138.792,1784.9684,26.7169,1690.3875,-93.965
165448,SLG,20,1.049164,-29.9354,1.054185,-149.92,1.053206,90.3178,1351.1952,143.0888,1773.2354,26.3601,1705.6678,-94.112
165448,SLG,30,1.05021,-29.9009,1.053678,-149.883,1.052866,90.2754,1476.9124,144.1414,1769.3715,26.2368,1710.8358,-94.1574
165448,SLG,40,1.050732,-29.8833,1.053421,-149.8645,1.052699,90.2541,1540.0482,144.622,1767.4507,26.1743,1713.4335,-94.1795
165448,LL,0,0.946474,-26.1389,0.7955,-146.8972,1.119805,85.2753,36446.7444,-83.3958,33346.8003,122.4982,2180.2649,-88.2683
165448,LL,10,1.048157,-29.7795,1.049348,-150.238,1.057246,90.2168,953.9271,138.5978,1020.3159,20.2857,1713.5183,-93.2093
165448,LL,20,1.050179,-29.8063,1.051046,-150.0261,1.054747,90.2061,1336.8717,143.1368,1390.5542,23.6651,1716.9845,-93.7249
165448,LL,30,1.050874,-29.8145,1.051589,-149.9544,1.053905,90.2012,1467.0225,144.1928,1514.2515,24.5172,1718.3213,-93.8973
165448,LL,40,1.051226,-29.8185,1.051856,-149.9183,1.053482,90.1985,1532.5042,144.6667,1576.1193,24.91,1719.0252,-93.9836
165448,3LG,0,0.875331,-29.3408,0.875327,-149.342,0.875333,90.6599,39272.126,-101.0356,39271.6836,138.9638,39271.8286,18.9651
165448,3LG,10,1.051088,-30.0052,1.051444,-149.9863,1.051028,90.0138,963.9469,139.9765,994.9185,20.1649,955.9318,-100.3586
165448,3LG,20,1.051704,-29.918,1.052053,-149.8982,1.05163,90.1012,1345.0477,143.6343,1376.2017,23.7272,1336.378,-96.5864
165448,3LG,30,1.051904,-29.8887,1.052251,-149.8687,1.051826,90.1305,1473.1322,144.4965,1504.3256,24.5757,1464.2773,-95.7011
165448,3LG,40,1.052004,-29.874,1.052349,-149.8538,1.051922,90.1452,1537.3301,144.8854,1568.5405,24.9593,1528.3862,-95.3024
165449,SLG,0,0.948523,-24.8141,1.009818,-154.2527,1.143721,90.1169,13288.7456,-102.244,2793.2014,15.2845,1807.1054,-65.9906
165449,SLG,10,1.04636,-30.0761,1.056073,-150.0017,1.053581,90.4476,988.3099,136.0477,1796.5378,27.5198,1663.3911,-94.071
165449,SLG,20,1.049367,-29.9577,1.054413,-149.9037,1.052833,90.3205,1355.2349,141.8818,1778.4757,26.7785,1692.0734,-94.1842
165449,SLG,30,1.050353,-29.9161,1.053834,-149.8718,1.05261,90.2772,1479.5885,143.3623,1772.7403,26.5193,1701.7567,-94.2098
165449,SLG,40,1.050842,-29.895,1.05354,-149.856,1.052505,90.2555,1542.0553,144.0462,1769.9273,26.3875,1706.6188,-94.2203
165449,LL,0,0.995166,-27.9297,0.898481,-147.7805,1.085455,87.1468,20763.4543,-85.243,20460.4308,120.1162,2243.1233,-87.262
165449,LL,10,1.047855,-29.8107,1.050073,-150.2511,1.057018,90.249,945.4675,135.325,1031.6661,18.5423,1698.4916,-92.4471
165449,LL,20,1.050015,-29.8247,1.051472,-150.0329,1.054615,90.2245,1329.5895,141.781,1397.6955,22.9072,1708.5908,-93.3578
165449,LL,30,1.050763,-29.8274,1.051887,-149.9589,1.053812,90.214,1461.6082,143.3295,1519.3862,24.0302,1712.5279,-93.6561
165449,LL,40,1.051142,-29.8284,1.052085,-149.9217,1.053411,90.2083,1528.2463,144.0325,1580.1168,24.551,1714.6064,-93.8041
165449,3LG,0,0.946508,-29.5491,0.946497,-149.5504,0.946509,90.4513,23220.0361,-102.6591,23219.9839,137.3411,23219.8641,17.3416
165449,3LG,10,1.051189,-30.0112,1.051564,-149.9934,1.051152,90.0082,957.2191,137.8449,988.5363,18.0307,949.8461,-102.4769
165449,3LG,20,1.051766,-29.9213,1.052126,-149.9021,1.051703,90.0981,1340.6105,142.7622,1371.9601,22.8497,1332.2457,-97.4519
165449,3LG,30,1.051948,-29.891,1.052302,-149.8713,1.051877,90.1284,1469.9934,143.9431,1501.3231,24.0184,1461.3399,-96.2502
165449,3LG,40,1.052037,-29.8757,1.052388,-149.8558,1.051962,90.1436,1534.9144,144.4795,1566.2292,24.5505,1526.1207,-95.7051
287274,SLG,0,0.966567,-26.7001,1.029197,-153.2392,1.119052,90.6007,9537.2083,-99.3685,2774.4838,16.9147,1725.0404,-66.376
287274,SLG,10,1.046457,-30.1043,1.056383,-149.9862,1.05318,90.4547,983.184,134.3351,1806.2002,28.0491,1644.5043,-94.0904
287274,SLG,20,1.049434,-29.974,1.054589,-149.8951,1.052607,90.3246,1351.1641,141.0884,1782.8024,27.0646,1682.3944,-94.2154
287274,SLG,30,1.050403,-29.9274,1.053956,-149.8658,1.052454,90.28,1476.5901,142.8425,1775.495,26.7148,1695.2598,-94.2354
287274,SLG,40,1.050882,-29.9036,1.053633,-149.8514,1.052385,90.2576,1539.7049,143.6593,1771.9414,26.536,1701.7308,-94.2414
287274,LL,0,1.013822,-28.8898,0.93417,-149.3411,1.079937,88.0411,14111.5614,-76.2709,14936.8436,129.2161,2236.2356,-87.0708
287274,LL,10,1.047579,-29.8277,1.050451,-150.2662,1.056965,90.2694,929.2048,133.3141,1028.6429,17.4284,1689.9196,-91.8685
287274,LL,20,1.049861,-29.8357,1.05171,-150.0413,1.054579,90.2367,1317.7307,140.9032,1395.997,22.4075,1703.2696,-93.0805
287274,LL,30,1.050657,-29.8353,1.052058,-149.9646,1.053785,90.2226,1452.9401,142.7617,1518.2549,23.7065,1708.7493,-93.4747
287274,LL,40,1.051062,-29.8346,1.052217,-149.926,1.053389,90.2149,1521.4672,143.6121,1579.2731,24.3114,1711.6856,-93.6694
287274,3LG,0,0.976458,-30.4551,0.976438,-150.4563,0.976454,89.545,16358.1906,-93.1635,16358.746,146.8378,16358.1604,26.8374
287274,3LG,10,1.05122,-30.0166,1.051605,-149.9998,1.051199,90.0027,943.061,136.5652,974.2991,16.7433,936.1687,-103.7436
287274,3LG,20,1.051789,-29.9247,1.052154,-149.9059,1.051734,90.0947,1331.1705,142.2112,1362.4992,22.2939,1323.0499,-97.9965
287274,3LG,30,1.051965,-29.8934,1.052323,-149.874,1.051899,90.126,1463.2053,143.5878,1494.5269,23.66,1454.7143,-96.6013
287274,3LG,40,1.052051,-29.8776,1.052405,-149.8579,1.051979,90.1418,1529.641,144.2169,1560.9519,24.2856,1520.969,-95.9646
283954,SLG,0,0.978282,-27.1947,1.034284,-152.7144,1.10833,90.6183,8005.1166,-102.3265,2801.832,16.3481,1754.1078,-65.6341
283954,SLG,10,1.04664,-30.1289,1.056636,-149.9691,1.052782,90.4583,988.2656,132.7239,1813.5831,28.5219,1628.224,-94.1553
283954,SLG,20,1.049558,-29.9873,1.054722,-149.8853,1.052385,90.326,1353.8406,140.3699,1785.7935,27.3189,1674.2229,-94.2704
283954,SLG,30,1.050493,-29.9365,1.054046,-149.859,1.052301,90.2809,1478.4795,142.3773,1777.319,26.888,1689.817,-94.2769
283954,SLG,40,1.050952,-29.9105,1.0537,-149.8461,1.052268,90.2582,1541.1706,143.315,1773.2439,26.6672,1697.6522,-94.2743
283954,LL,0,1.019617,-29.0434,0.95178,-149.4182,1.075771,88.3933,11764.8366,-76.9406,12708.3177,127.9983,2271.3848,-87.1893
283954,LL,10,1.047365,-29.8447,1.050875,-150.2761,1.056864,90.2889,924.7832,131.4275,1035.9715,16.2999,1681.5336,-91.3773
283954,LL,20,1.049758,-29.8465,1.051967,-150.0456,1.054502,90.2478,1313.8525,140.0891,1400.5581,21.9394,1698.0584,-92.8556
283954,LL,30,1.050591,-29.8431,1.052238,-149.9673,1.053727,90.2302,1450.094,142.2378,1521.5351,23.4107,1705.0622,-93.3304
283954,LL,40,1.051013,-29.8406,1.052356,-149.9279,1.053343,90.2208,1519.2477,143.2253,1581.827,24.0952,1708.843,-93.5634
283954,3LG,0,0.98774,-30.3594,0.987712,-150.3609,0.987736,89.6403,13796.4679,-93.9914,13797.3818,146.0117,13796.2864,26.0091
283954,3LG,10,1.051277,-30.0201,1.051677,-150.0039,1.051271,89.9996,940.3037,135.2893,971.8895,15.4698,933.8087,-104.9958
283954,3LG,20,1.051825,-29.9267,1.052199,-149.9082,1.051778,90.093,1328.9403,141.68,1360.4752,21.7615,1321.0057,-98.5182
283954,3LG,30,1.051991,-29.8948,1.052355,-149.8755,1.05193,90.1248,1461.5812,143.249,1493.0454,23.3203,1453.2103,-96.9341
283954,3LG,40,1.052071,-29.8787,1.05243,-149.8591,1.052003,90.1409,1528.3765,143.9678,1559.7963,24.0358,1519.7929,-96.2092
283956,SLG,0,0.980549,-28.1971,1.04414,-152.5027,1.100496,90.9896,6744.1614,-92.3289,2661.0378,20.0769,1580.761,-70.1098
283956,SLG,10,1.046723,-30.1223,1.056553,-149.967,1.052789,90.4533,999.5682,133.2802,1812.8747,28.4709,1629.946,-94.1439
283956,SLG,20,1.049576,-29.9855,1.0547,-149.8848,1.052389,90.3247,1356.9139,140.4705,1785.6693,27.3044,1674.6661,-94.2659
283956,SLG,30,1.050501,-29.9357,1.054035,-149.8588,1.052303,90.2803,1479.8847,142.4186,1777.272,26.8812,1690.0178,-94.2746
283956,SLG,40,1.050957,-29.91,1.053695,-149.846,1.05227,90.2578,1541.9776,143.3374,1773.2203,26.6632,1697.7671,-94.2728
283956,LL,0,1.023012,-29.3241,0.964745,-150.3986,1.078053,88.773,9748.035,-67.4153,10542.6755,137.611,2147.7197,-86.7559
283956,LL,10,1.04749,-29.845,1.050861,-150.2662,1.056762,90.2856,937.236,131.8272,1043.7992,16.8478,1682.7658,-91.4397
283956,LL,20,1.049792,-29.8463,1.051958,-150.0431,1.054478,90.2467,1317.3384,140.1561,1402.5734,22.0395,1698.4637,-92.8702
283956,LL,30,1.050606,-29.843,1.052234,-149.9661,1.053717,90.2297,1451.7046,142.2651,1522.4437,23.4515,1705.2587,-93.3366
283956,LL,40,1.051022,-29.8405,1.052354,-149.9272,1.053337,90.2205,1520.1774,143.2402,1582.3479,24.1172,1708.9595,-93.5669
283956,3LG,0,0.999322,-30.8073,0.999317,-150.81,0.999335,89.1925,11437.8908,-84.4447,11437.256,155.5669,11438.7169,35.5588
283956,3LG,10,1.051281,-30.0174,1.051678,-150.0012,1.051273,90.0022,949.3213,135.6756,980.8886,15.8469,942.744,-104.6084
283956,3LG,20,1.051826,-29.926,1.052199,-149.9075,1.051778,90.0937,1331.4335,141.7449,1362.9532,21.8256,1323.4786,-98.4532
283956,3LG,30,1.051991,-29.8944,1.052355,-149.8752,1.05193,90.1251,1462.7324,143.2752,1494.1895,23.3462,1454.3528,-96.9079
283956,3LG,40,1.052071,-29.8785,1.05243,-149.8589,1.052003,90.141,1529.0434,143.9818,1560.4592,24.0497,1520.455,-96.1951
189963,SLG,0,0.98971,-28.3116,1.048199,-152.1058,1.092277,91.0045,5617.5921,-101.032,2937.706,16.1227,1782.8389,-62.0094
189963,SLG,10,1.046304,-30.2268,1.057823,-149.9442,1.0518,90.5023,919.9938,126.4522,1851.0845,30.0335,1568.2012,-93.9955
189963,SLG,20,1.049494,-30.0423,1.05536,-149.8683,1.051799,90.3478,1315.4446,137.8087,1801.7498,28.1881,1643.2183,-94.3067
189963,SLG,30,1.050477,-29.9744,1.054479,-149.8465,1.051888,90.2952,1452.3549,140.7452,1787.2155,27.4914,1668.9997,-94.3265
189963,SLG,40,1.050951,-29.9393,1.054028,-149.8364,1.05195,90.2688,1521.425,142.1148,1780.3708,27.1284,1681.9953,-94.3208
189963,LL,0,1.033283,-29.3691,0.977842,-150.2945,1.073204,88.9693,7190.5614,-66.8133,8694.703,138.5444,2395.4036,-87.1743
189963,LL,10,1.046037,-29.8795,1.051654,-150.3609,1.057269,90.3527,821.8608,124.514,982.3324,11.8568,1663.4966,-89.3059
189963,LL,20,1.049085,-29.8748,1.052537,-150.0874,1.054614,90.2858,1250.722,137.3553,1372.7941,20.2784,1683.3605,-91.8912
189963,LL,30,1.050148,-29.8645,1.052658,-149.9946,1.053776,90.2568,1405.8973,140.4996,1503.022,22.3881,1694.0694,-92.7113
189963,LL,40,1.050684,-29.8576,1.052686,-149.9481,1.05337,90.2411,1485.3647,141.9474,1567.9528,23.3566,1700.1651,-93.1091
189963,3LG,0,1.010334,-30.724,1.010284,-150.7268,1.010353,89.274,8950.67,-82.9382,8950.96,157.065,8947.1937,37.0632
189963,3LG,10,1.051227,-30.046,1.051666,-150.0332,1.051284,89.9744,852.3414,130.8401,884.2599,11.0794,848.4442,-109.314
189963,3LG,20,1.051824,-29.942,1.052224,-149.9249,1.051807,90.0785,1276.5014,139.9903,1308.3537,20.0801,1269.8821,-100.1552
189963,3LG,30,1.051997,-29.9055,1.052379,-149.8871,1.051956,90.1147,1424.9326,142.1852,1456.6334,22.261,1417.427,-97.9645
189963,3LG,40,1.052078,-29.8869,1.052451,-149.8679,1.052024,90.1331,1500.2733,143.189,1531.8788,23.2602,1492.3324,-96.9635
181977,SLG,0,0.995385,-28.6799,1.051529,-151.855,1.086671,91.0514,4759.9392,-100.1259,2871.9971,16.9634,1731.0141,-63.8701
181977,SLG,10,1.046434,-30.2409,1.057974,-149.9318,1.051526,90.5034,927.9224,125.7546,1858.1327,30.3348,1556.3363,-93.9832
181977,SLG,20,1.049592,-30.0516,1.055451,-149.8606,1.051631,90.3483,1319.1048,137.3339,1804.3803,28.3803,1636.8058,-94.343
181977,SLG,30,1.050552,-29.9811,1.054542,-149.841,1.051768,90.2954,1454.7659,140.4118,1788.7076,27.6281,1664.6556,-94.3602
181977,SLG,40,1.051011,-29.9445,1.054076,-149.8321,1.051858,90.2689,1523.2322,141.8593,1781.3832,27.2341,1678.7173,-94.3497
181977,LL,0,1.035549,-29.4367,0.987602,-150.4516,1.072118,89.1723,5982.1978,-64.336,7369.4131,140.5291,2354.7105,-87.4273
181977,LL,10,1.045904,-29.8872,1.051907,-150.366,1.057203,90.3647,825.5874,123.7479,991.9439,11.2401,1660.633,-88.8838
181977,LL,20,1.049009,-29.8822,1.052725,-150.0901,1.054555,90.2939,1250.0527,136.8123,1377.8254,19.9509,1679.8152,-91.6953
181977,LL,30,1.050099,-29.8703,1.052797,-149.9963,1.053728,90.2626,1404.9083,140.1173,1506.4385,22.1721,1691.2548,-92.5885
181977,LL,40,1.050649,-29.8623,1.052795,-149.9493,1.05333,90.2456,1484.4293,141.6541,1570.5377,23.1961,1697.892,-93.0205
181977,3LG,0,1.016775,-30.7086,1.016735,-150.7124,1.016819,89.2892,7532.6709,-80.6324,7531.4438,159.3715,7527.661,39.3686
181977,3LG,10,1.051267,-30.0465,1.051715,-150.0339,1.051331,89.9743,857.8807,130.2513,890.1302,10.4964,854.0986,-109.8781
181977,3LG,20,1.051852,-29.943,1.052259,-149.926,1.051838,90.0777,1277.0928,139.6296,1309.1598,19.7243,1270.516,-100.5056
181977,3LG,30,1.052018,-29.9063,1.052405,-149.888,1.051978,90.1141,1424.8275,141.9368,1456.6789,22.0162,1417.3412,-98.2063
181977,3LG,40,1.052095,-29.8876,1.052471,-149.8686,1.052042,90.1326,1500.0069,143.0001,1531.7276,23.0741,1492.0763,-97.1476
181924,SLG,0,0.998856,-28.4388,1.050125,-151.7861,1.086232,90.9537,4640.9161,-108.8505,2967.5097,13.4063,1921.978,-62.3856
181924,SLG,10,1.046598,-30.3009,1.058635,-149.9036,1.050747,90.5208,926.2294,121.3857,1876.5868,31.2891,1520.672,-94.0727
181924,SLG,20,1.049802,-30.0804,1.055739,-149.8423,1.051195,90.3528,1321.1264,135.7383,1810.2701,28.9011,1620.0217,-94.4799
181924,SLG,30,1.05072,-29.9998,1.054721,-149.828,1.051471,90.2974,1457.2011,139.436,1791.8435,27.9807,1653.7913,-94.4681
181924,SLG,40,1.051148,-29.9583,1.054205,-149.822,1.051632,90.27,1525.5097,141.1567,1783.436,27.4997,1670.7028,-94.4362
181924,LL,0,1.035941,-29.4435,0.989023,-150.0998,1.070039,89.1827,5938.333,-69.3557,7415.2469,133.9343,2462.3614,-89.4796
181924,LL,10,1.045143,-29.9156,1.052748,-150.4083,1.057275,90.4111,801.34,118.997,1002.378,7.883,1647.1904,-87.5965
181924,LL,20,1.04873,-29.9038,1.053248,-150.1032,1.054452,90.3178,1238.2169,135.0332,1385.7009,18.8806,1668.9461,-91.1892
181924,LL,30,1.049944,-29.886,1.05316,-150.0029,1.053628,90.2783,1397.734,139.0147,1512.3428,21.554,1683.3775,-92.2883
181924,LL,40,1.050544,-29.8745,1.053071,-149.9535,1.053243,90.2572,1479.388,140.8547,1575.1972,22.7645,1691.7936,-92.8098
181924,3LG,0,1.015881,-30.525,1.015844,-150.5284,1.015923,89.4733,7555.4686,-86.4316,7554.6362,153.5657,7550.6267,33.5608
181924,3LG,10,1.051365,-30.0574,1.051845,-150.0447,1.051443,89.9649,845.0197,126.9554,878.1969,7.3432,841.4033,-113.0961
181924,3LG,20,1.051924,-29.9482,1.052345,-149.9308,1.051911,90.0734,1270.3604,138.4642,1302.9693,18.6003,1263.7448,-101.644
181924,3LG,30,1.052071,-29.9097,1.052467,-149.891,1.052031,90.1113,1420.5851,141.2243,1452.7884,21.3282,1413.0353,-98.9028
181924,3LG,40,1.052136,-29.8901,1.05252,-149.8709,1.052083,90.1305,1496.9477,142.4863,1528.9264,22.5778,1488.9548,-97.65
181993,SLG,0,1.001864,-28.529,1.050921,-151.6757,1.084078,90.9418,4298.1142,-110.8339,2944.2258,13.0614,1932.7281,-63.2513
181993,SLG,10,1.046662,-30.3202,1.058848,-149.8928,1.050466,90.5256,927.1981,120.1907,1884.4953,31.6381,1506.8864,-94.0768
181993,SLG,20,1.049891,-30.0907,1.055837,-149.8349,1.051027,90.3538,1323.0639,135.2011,1812.6345,29.1091,1613.2979,-94.5363
181993,SLG,30,1.050793,-30.0066,1.054783,-149.8226,1.051353,90.2977,1458.9419,139.0878,1793.0163,28.1245,1649.4093,-94.516
181993,SLG,40,1.051208,-29.9634,1.05425,-149.8178,1.051542,90.2701,1526.9983,140.8991,1784.1598,27.6091,1667.4622,-94.4757
181993,LL,0,1.036471,-29.458,0.993018,-150.0762,1.069279,89.26,5526.0191,-70.3511,6929.1415,132.4082,2456.121,-90.0108
181993,LL,10,1.044896,-29.9235,1.053008,-150.4214,1.05729,90.4262,795.5799,117.7164,1006.8645,6.9158,1644.0079,-87.0756
181993,LL,20,1.048633,-29.9118,1.053442,-150.1072,1.054402,90.3266,1235.1795,134.4159,1389.4686,18.5268,1664.787,-90.9805
181993,LL,30,1.04989,-29.8921,1.0533,-150.0049,1.053581,90.2841,1395.8651,138.608,1515.1668,21.3415,1680.1758,-92.1662
181993,LL,40,1.050509,-29.8793,1.053179,-149.9547,1.053203,90.2616,1478.0707,140.5516,1577.4201,22.6133,1689.2567,-92.725
181993,3LG,0,1.017939,-30.4638,1.017914,-150.4672,1.01799,89.5349,7054.5304,-87.6939,7053.0026,152.2963,7049.2491,32.2938
181993,3LG,10,1.051396,-30.0602,1.051886,-150.0474,1.051474,89.9626,843.1758,126.0434,876.621,6.487,839.4714,-113.9789
181993,3LG,20,1.05195,-29.9499,1.052377,-149.9322,1.051936,90.0721,1268.9874,138.0664,1301.7696,18.2224,1262.2738,-102.0312
181993,3LG,30,1.052092,-29.9108,1.052491,-149.892,1.05205,90.1104,1419.6413,140.9667,1451.9571,21.0828,1412.0093,-99.1541
181993,3LG,40,1.052153,-29.8909,1.052538,-149.8716,1.052098,90.1298,1496.2375,142.2956,1528.2983,22.3959,1488.1766,-97.8364
181994,SLG,0,1.004587,-28.6541,1.051977,-151.5654,1.081801,90.942,3951.0598,-112.0486,2912.4064,13.1871,1918.4869,-64.1638
181994,SLG,10,1.046674,-30.3378,1.059051,-149.8844,1.050232,90.5311,924.2604,119.1182,1892.5149,31.9464,1494.0792,-94.0523
181994,SLG,20,1.049956,-30.1008,1.055937,-149.8285,1.050876,90.3553,1322.9507,134.6829,1815.0336,29.3055,1606.8635,-94.5862
181994,SLG,30,1.050851,-30.0135,1.054847,-149.8178,1.051246,90.2984,1459.289,138.7454,1794.1878,28.2622,1645.1914,-94.5613
181994,SLG,40,1.051257,-29.9686,1.054297,-149.8141,1.05146,90.2704,1527.4332,140.6435,1784.87,27.7145,1664.3368,-94.514
181994,LL,0,1.037199,-29.4659,0.997143,-150.096,1.068708,89.3388,5050.4864,-70.9404,6375.7146,131.576,2441.1535,-90.2724
181994,LL,10,1.044658,-29.9285,1.053195,-150.4352,1.057339,90.4389,787.416,116.6012,1006.7816,6.0048,1642.396,-86.5799
181994,LL,20,1.04853,-29.9188,1.053611,-150.1122,1.054371,90.3347,1230.5698,133.8234,1391.0146,18.1736,1661.0229,-90.7756
181994,LL,30,1.049832,-29.8977,1.053425,-150.0075,1.053546,90.2897,1392.858,138.2091,1516.5109,21.1257,1677.1529,-92.0467
181994,LL,40,1.05047,-29.8839,1.053278,-149.9564,1.053171,90.2658,1475.8677,140.2515,1578.5308,22.4586,1686.8254,-92.6424
181994,3LG,0,1.02041,-30.4218,1.020405,-150.425,1.020474,89.5778,6475.7244,-88.373,6473.0271,151.6062,6469.901,31.6094
181994,3LG,10,1.051413,-30.0634,1.051912,-150.0503,1.051493,89.96,838.5497,125.2056,872.251,5.7036,834.7956,-114.7866
181994,3LG,20,1.051972,-29.9518,1.052403,-149.934,1.051956,90.0705,1265.9213,137.675,1298.8766,17.851,1259.1278,-102.4114
181994,3LG,30,1.052109,-29.9122,1.052512,-149.8932,1.052066,90.1092,1417.4877,140.7083,1449.9166,20.8368,1409.7847,-99.4059
181994,3LG,40,1.052168,-29.892,1.052555,-149.8725,1.052111,90.129,1494.5891,142.1025,1526.7325,22.2118,1486.468,-98.0248
181891,SLG,0,1.007551,-28.9734,1.054246,-151.413,1.078253,90.9813,3399.0354,-108.637,2802.2447,15.3203,1799.9594,-66.8245
181891,SLG,10,1.046627,-30.3169,1.058858,-149.8914,1.050439,90.5253,928.2511,121.0989,1891.3837,31.6142,1503.4789,-93.8421
181891,SLG,20,1.049909,-30.0944,1.055888,-149.832,1.050955,90.3548,1324.4896,135.1041,1815.4757,29.1773,1609.9264,-94.4922
181891,SLG,30,1.050819,-30.0102,1.054825,-149.8199,1.051291,90.2984,1460.029,138.9427,1794.5994,28.1873,1646.9009,-94.5047
181891,SLG,40,1.051233,-29.9664,1.054284,-149.8155,1.05149,90.2706,1527.8766,140.764,1785.2052,27.6625,1665.5017,-94.4742
181891,LL,0,1.038064,-29.5206,1.00306,-150.2951,1.068539,89.4704,4346.1947,-67.4862,5507.4896,134.478,2348.5189,-89.7444
181891,LL,10,1.044987,-29.9144,1.052863,-150.4179,1.057298,90.4215,804.742,119.0206,1004.3961,7.2616,1652.7144,-86.92
181891,LL,20,1.048597,-29.9124,1.053488,-150.1092,1.054401,90.3295,1236.4228,134.3459,1390.8173,18.3877,1665.4206,-90.8442
181891,LL,30,1.049858,-29.894,1.05336,-150.0064,1.05357,90.2871,1395.9207,138.4625,1516.5948,21.2132,1679.7068,-92.0767
181891,LL,40,1.050484,-29.8813,1.053235,-149.9558,1.05319,90.2641,1477.8372,140.4105,1578.6806,22.5071,1688.5793,-92.6602
181891,3LG,0,1.024502,-30.4643,1.024535,-150.4677,1.024589,89.5363,5593.4137,-85.2155,5587.8499,154.7547,5587.0356,34.7688
181891,3LG,10,1.051402,-30.0578,1.051884,-150.0446,1.051473,89.9648,850.4415,126.554,883.7752,6.9786,846.536,-113.5016
181891,3LG,20,1.051965,-29.9499,1.05239,-149.9321,1.051948,90.072,1270.7606,137.9558,1303.5591,18.1164,1263.9306,-102.1491
181891,3LG,30,1.052105,-29.9112,1.052504,-149.8922,1.052061,90.1101,1420.2669,140.843,1452.6095,20.9634,1412.5478,-99.2816
181891,3LG,40,1.052165,-29.8913,1.05255,-149.8718,1.052109,90.1295,1496.4904,142.1866,1528.5762,22.2904,1488.3596,-97.948
255335,SLG,0,1.008051,-28.9155,1.054382,-151.4032,1.078046,90.9821,3392.2162,-112.1013,2866.2291,14.0848,1865.7958,-65.2699
255335,SLG,10,1.046567,-30.3669,1.059419,-149.8745,1.049891,90.5436,909.6308,117.4487,1909.1886,32.4224,1471.7243,-93.8867
255335,SLG,20,1.05,-30.1196,1.056137,-149.8195,1.050631,90.3603,1316.7477,133.7967,1820.755,29.6485,1594.7737,-94.6319
255335,SLG,30,1.050907,-30.0266,1.05498,-149.8108,1.051068,90.3012,1455.6382,138.1458,1797.2073,28.5102,1637.1126,-94.6183
255335,SLG,40,1.051309,-29.9786,1.054396,-149.8084,1.05132,90.2723,1524.912,140.1911,1786.8117,27.9068,1658.2967,-94.5662
255335,LL,0,1.038977,-29.4864,1.003669,-150.2271,1.0682,89.4679,4164.3036,-69.4984,5401.6764,132.8874,2414.1775,-90.2684
255335,LL,10,1.044211,-29.9313,1.053377,-150.4628,1.057515,90.4583,764.2775,115.0221,997.9194,4.5452,1643.9639,-85.6821
255335,LL,20,1.048301,-29.9294,1.05386,-150.1246,1.05437,90.3491,1216.0862,132.8482,1388.6867,17.5667,1655.4444,-90.3649
255335,LL,30,1.049693,-29.9068,1.053622,-150.0148,1.053519,90.2999,1382.8575,137.5313,1515.3514,20.7498,1672.2253,-91.8012
255335,LL,40,1.050373,-29.8914,1.053435,-149.9614,1.05314,90.2735,1468.292,139.7345,1577.7762,22.1873,1682.7313,-92.4708
255335,3LG,0,1.025088,-30.4183,1.025132,-150.4217,1.025186,89.5827,5427.0571,-86.8482,5420.9706,153.1098,5420.0981,33.1276
255335,3LG,10,1.051403,-30.0691,1.05192,-150.0559,1.05149,89.9552,823.2874,124.0323,857.5172,4.6132,819.608,-115.9067
255335,3LG,20,1.051989,-29.9561,1.05243,-149.9379,1.051972,90.0668,1255.2949,137.0553,1288.6006,17.2638,1248.4372,-103.0103
255335,3LG,30,1.052127,-29.9154,1.052536,-149.896,1.052082,90.1065,1409.7796,140.2863,1442.4382,20.4354,1401.998,-99.8155
255335,3LG,40,1.052184,-29.8945,1.052576,-149.8747,1.052126,90.1268,1488.5832,141.7826,1520.8946,21.9069,1480.3892,-98.3361
182030,SLG,0,1.008626,-29.0127,1.055186,-151.3632,1.077016,91.0022,3250.6569,-110.7799,2846.1291,14.8365,1827.0271,-65.6569
182030,SLG,10,1.046578,-30.3613,1.059358,-149.8753,1.049933,90.5411,911.7769,118.0139,1908.5888,32.3563,1473.8233,-93.8555
182030,SLG,20,1.049997,-30.1181,1.056123,-149.8199,1.050645,90.3599,1317.3883,133.8973,1820.7695,29.6298,1595.2473,-94.6196
182030,SLG,30,1.050905,-30.026,1.054974,-149.811,1.051074,90.301,1455.9163,138.1866,1797.241,28.5018,1637.311,-94.6123
182030,SLG,40,1.051308,-29.9782,1.054392,-149.8085,1.051324,90.2722,1525.065,140.2131,1786.8384,27.9021,1658.4046,-94.5628
182030,LL,0,1.039294,-29.4816,1.005304,-150.2948,1.068309,89.5024,3935.0599,-68.7188,5121.5764,134.0257,2396.6698,-89.8967
182030,LL,10,1.044297,-29.9295,1.053317,-150.4569,1.057477,90.4544,768.3769,115.6307,998.7655,5.0088,1645.4882,-85.7687
182030,LL,20,1.048319,-29.9284,1.053837,-150.1234,1.054368,90.348,1217.3369,132.9567,1388.9097,17.642,1656.0668,-90.3787
182030,LL,30,1.0497,-29.9063,1.053611,-150.0143,1.053519,90.2994,1383.418,137.5755,1515.4469,20.7791,1672.522,-91.8058
182030,LL,40,1.050377,-29.8911,1.053429,-149.9611,1.053141,90.2732,1468.6063,139.7584,1577.8293,22.2028,1682.9018,-92.473
182030,3LG,0,1.026422,-30.4274,1.02648,-150.431,1.026531,89.574,5136.6573,-85.8494,5129.3577,154.104,5129.3418,34.1259
182030,3LG,10,1.051396,-30.0675,1.05191,-150.0542,1.051481,89.9568,826.2056,124.4814,860.3982,5.0441,822.5021,-115.4631
182030,3LG,20,1.051986,-29.9557,1.052427,-149.9375,1.051969,90.0672,1256.2312,137.1319,1289.5191,17.3382,1249.3728,-102.9346
182030,3LG,30,1.052126,-29.9152,1.052534,-149.8958,1.05208,90.1067,1410.2116,140.3173,1442.8625,20.4655,1402.431,-99.7849
182030,3LG,40,1.052183,-29.8944,1.052575,-149.8746,1.052125,90.1269,1488.8297,141.7993,1521.1368,21.9231,1480.6365,-98.3196
182153,SLG,0,1.012526,-29.3611,1.058794,-151.1674,1.07215,91.0845,2547.3031,-109.9628,2820.2769,16.0875,1767.9756,-66.2398
182153,SLG,10,1.045518,-30.4337,1.060509,-149.8816,1.049516,90.6061,830.0234,112.7095,1968.9507,33.2732,1444.8548,-92.4988
182153,SLG,20,1.049807,-30.1719,1.05677,-149.806,1.050101,90.3836,1275.1941,131.5017,1841.8592,30.4885,1561.0892,-94.5529
182153,SLG,30,1.050851,-30.0644,1.055413,-149.7987,1.05066,90.3156,1428.2204,136.5877,1809.1947,29.1498,1613.994,-94.654
182153,SLG,40,1.051297,-30.0079,1.054722,-149.7982,1.050994,90.2826,1504.6077,139.0125,1794.897,28.4139,1640.8071,-94.6254
182153,LL,0,1.04248,-29.5449,1.013422,-150.5008,1.067586,89.6657,2739.5399,-60.7488,3924.2931,140.1307,2375.2484,-90.0203
182153,LL,10,1.043338,-29.9024,1.053061,-150.5412,1.058329,90.4815,704.866,112.9393,930.2812,0.078,1673.621,-83.7023
182153,LL,20,1.047503,-29.9464,1.054286,-150.173,1.054627,90.3858,1152.9847,130.5545,1360.5639,15.8622,1647.1275,-89.0978
182153,LL,30,1.049178,-29.9252,1.054011,-150.045,1.053612,90.3271,1337.9266,135.8881,1497.3834,19.7219,1662.133,-91.0166
182153,LL,40,1.050002,-29.9078,1.053762,-149.9829,1.053178,90.2947,1433.7134,138.4654,1564.4843,21.4573,1673.6156,-91.9154
182153,3LG,0,1.03273,-30.4807,1.03291,-150.4847,1.032908,89.5243,3801.3964,-78.4797,3785.5833,161.4513,3793.2985,41.5004
182153,3LG,10,1.051261,-30.0866,1.051815,-150.0747,1.051387,89.939,755.9563,121.12,791.4749,1.8556,753.5534,-118.6858
182153,3LG,20,1.051954,-29.9702,1.052425,-149.9519,1.05195,90.0542,1207.0562,135.614,1241.3862,15.8829,1200.6119,-104.3915
182153,3LG,30,1.052119,-29.926,1.052548,-149.9064,1.052078,90.097,1374.3324,139.3029,1407.6783,19.492,1366.7052,-100.7621
182153,3LG,40,1.052184,-29.9029,1.05259,-149.8828,1.052127,90.1193,1460.7671,141.0348,1493.5824,21.1889,1452.6398,-99.0579
182158,SLG,0,1.014444,-29.4443,1.059483,-151.0904,1.070575,91.0822,2311.4328,-111.2863,2796.8562,16.2987,1757.3008,-66.9835
182158,SLG,10,1.045112,-30.456,1.060912,-149.8853,1.049399,90.6306,804.2851,111.0653,1993.1656,33.5174,1438.8144,-91.8413
182158,SLG,20,1.049762,-30.1908,1.056999,-149.7998,1.049889,90.3914,1263.5907,130.6641,1850.0555,30.7935,1548.4745,-94.5129
182158,SLG,30,1.050856,-30.0781,1.055566,-149.7932,1.050495,90.3201,1421.1001,136.0118,1813.6897,29.3877,1605.3443,-94.6691
182158,SLG,40,1.051316,-30.0185,1.054835,-149.7935,1.050863,90.2857,1499.574,138.5749,1797.8383,28.6039,1634.2855,-94.6519
182158,LL,0,1.043138,-29.5613,1.016211,-150.5122,1.067082,89.7174,2410.6256,-59.5505,3556.9146,140.3056,2358.7849,-90.2517
182158,LL,10,1.043528,-29.881,1.05272,-150.5529,1.058514,90.4728,727.707,113.8303,903.5366,-1.7018,1694.2036,-83.4139
182158,LL,20,1.047212,-29.9519,1.054459,-150.1902,1.054716,90.3997,1133.6875,129.7583,1353.9564,15.183,1645.1094,-88.6019
182158,LL,30,1.048994,-29.9321,1.054174,-150.0552,1.053633,90.3376,1324.4068,135.2873,1493.7915,19.3182,1658.5992,-90.7116
182158,LL,40,1.049873,-29.9141,1.053901,-149.9899,1.053178,90.3028,1423.4455,137.9934,1562.0261,21.174,1670.2317,-91.7025
182158,3LG,0,1.034404,-30.4616,1.034636,-150.4649,1.034601,89.5455,3413.6678,-77.7254,3394.8415,162.1793,3405.6915,42.2511
182158,3LG,10,1.051226,-30.0915,1.051789,-150.0802,1.051365,89.9342,738.0442,120.126,773.875,0.9049,736.0,-119.6461
182158,3LG,20,1.051952,-29.9745,1.052433,-149.9562,1.051952,90.0504,1193.802,135.0795,1228.4661,15.3693,1187.4339,-104.9064
182158,3LG,30,1.052124,-29.9293,1.052559,-149.9096,1.052084,90.0941,1364.5328,138.9321,1398.1002,19.1359,1356.8951,-101.1208
182158,3LG,40,1.05219,-29.9055,1.052602,-149.8853,1.052134,90.1169,1453.0615,140.7508,1486.0352,20.9161,1444.8996,-99.3334
182162,SLG,0,1.016193,-29.5052,1.059947,-151.0239,1.069274,91.0742,2114.4098,-113.1264,2774.3582,16.3961,1753.2036,-67.716
182162,SLG,10,1.044679,-30.4772,1.06132,-149.8902,1.0493,90.6559,778.0152,109.445,2018.2699,33.7216,1433.6856,-91.1164
182162,SLG,20,1.049714,-30.2098,1.057233,-149.7937,1.049674,90.3994,1252.2211,129.821,1858.6723,31.0944,1535.6865,-94.4601
182162,SLG,30,1.050863,-30.0919,1.055721,-149.7876,1.050327,90.3247,1414.3323,135.4297,1818.3696,29.6266,1596.552,-94.6812
182162,SLG,40,1.051337,-30.0291,1.05495,-149.7886,1.050728,90.2887,1494.8924,138.1323,1800.8682,28.7958,1627.6606,-94.6781
182162,LL,0,1.043678,-29.5773,1.018569,-150.5098,1.066574,89.7601,2141.3065,-58.69,3255.9081,139.993,2343.851,-90.5233
182162,LL,10,1.043724,-29.8604,1.05238,-150.5637,1.058689,90.4641,750.3045,114.594,877.4493,-3.4548,1714.8808,-83.1627
182162,LL,20,1.046912,-29.9566,1.054628,-150.208,1.054818,90.4137,1114.7331,128.9897,1347.702,14.4675,1643.9021,-88.0875
182162,LL,30,1.048804,-29.9388,1.054342,-150.0657,1.053657,90.3483,1311.2069,134.6891,1490.6952,18.8965,1655.2731,-90.3936
182162,LL,40,1.04974,-29.9205,1.054043,-149.997,1.053178,90.3111,1413.4885,137.519,1560.0209,20.8803,1666.8908,-91.4816
182162,3LG,0,1.035742,-30.4406,1.036018,-150.4432,1.035951,89.5684,3096.2436,-77.4031,3074.971,162.4695,3088.5722,42.5689
182162,3LG,10,1.051193,-30.0962,1.051765,-150.0854,1.051345,89.9297,721.3341,119.1425,757.4391,-0.0391,719.6731,-120.5996
182162,3LG,20,1.051951,-29.9787,1.052443,-149.9603,1.051956,90.0468,1181.3316,134.5412,1216.3454,14.8517,1175.0561,-105.4244
182162,3LG,30,1.05213,-29.9325,1.052572,-149.9126,1.052091,90.0913,1355.3065,138.5567,1389.1061,18.7756,1347.659,-101.4835
182162,3LG,40,1.052198,-29.9081,1.052614,-149.8877,1.052141,90.1147,1445.8072,140.4627,1478.9453,20.6397,1437.6079,-99.6126
